REMARK  3 active torsions:
REMARK  status: ('A' for Active; 'I' for Inactive)
REMARK    1  A    between atoms: C_5  and  N_10 
REMARK    2  A    between atoms: C_6  and  C_7 
REMARK    3  A    between atoms: C_13  and  C_15 
ROOT
HETATM    1  O   UNK     0       4.376  -2.502   0.000  0.00  0.00    -0.270 OA
HETATM    2  C   UNK     0       4.018  -1.569   0.000  0.00  0.00     0.244 A 
HETATM    3  C   UNK     0       3.030  -1.412   0.000  0.00  0.00     0.237 A 
HETATM    4  O   UNK     0       2.030  -1.412   0.000  0.00  0.00    -0.346 OA
HETATM    5  C   UNK     0       1.721  -0.461   0.000  0.00  0.00     0.430 A 
HETATM    6  C   UNK     0       2.530   0.127   0.000  0.00  0.00     0.125 A 
HETATM    7  C   UNK     0       3.339  -0.461   0.000  0.00  0.00     0.193 A 
HETATM    8  O   UNK     0       4.290  -0.152   0.000  0.00  0.00    -0.299 OA
HETATM    9  O   UNK     0       2.030   0.993   0.000  0.00  0.00     0.000 OA
ENDROOT
BRANCH   5  10
HETATM   10  N   UNK     0       0.743  -0.669   0.000  0.00  0.00    -0.283 N 
HETATM   11  N   UNK     0       0.000   0.000   0.000  0.00  0.00    -0.217 NA
HETATM   12  C   UNK     0      -0.866  -0.500   0.000  0.00  0.00     0.250 A 
HETATM   13  N   UNK     0      -0.658  -1.478   0.000  0.00  0.00    -0.247 NA
HETATM   14  C   UNK     0       0.336  -1.583   0.000  0.00  0.00     0.239 A 
BRANCH  12  15
HETATM   15  C   UNK     0      -1.780  -0.093   0.000  0.00  0.00     0.312 C 
HETATM   16  O   UNK     0      -1.884   0.901   0.000  0.00  0.00    -0.265 OA
HETATM   17  N   UNK     0      -2.589  -0.681   0.000  0.00  0.00    -0.104 N 
ENDBRANCH  12  15
ENDBRANCH   5  10
TORSDOF 3
