REMARK  3 active torsions:
REMARK  status: ('A' for Active; 'I' for Inactive)
REMARK    1  A    between atoms: C_3  and  C_4 
REMARK    2  A    between atoms: C_15  and  N_18 
REMARK    3  A    between atoms: C_21  and  C_23 
ROOT
HETATM    1  O   UNK     0      -2.779   1.626   0.000  0.00  0.00    -0.288 OA
HETATM    2  C   UNK     0      -3.088   0.675   0.000  0.00  0.00     0.240 A 
HETATM    3  C   UNK     0      -2.500  -0.134   0.000  0.00  0.00     0.277 A 
HETATM    4  O   UNK     0      -3.088  -0.943   0.000  0.00  0.00    -0.313 OA
HETATM    5  C   UNK     0      -4.039  -0.634   0.000  0.00  0.00     0.276 A 
HETATM    6  C   UNK     0      -4.039   0.366   0.000  0.00  0.00     0.240 A 
HETATM    7  O   UNK     0      -4.848   0.954   0.000  0.00  0.00    -0.288 OA
ENDROOT
BRANCH   3   8
HETATM    8  C   UNK     0      -1.500  -0.134   0.000  0.00  0.00     0.340 A 
HETATM    9  O   UNK     0      -1.000  -1.000   0.000  0.00  0.00    -0.252 OA
HETATM   10  P   UNK     0       0.000  -1.000   0.000  0.00  0.00     0.388 P 
HETATM   11  O   UNK     0       0.000  -2.000   0.000  0.00  0.00    -0.133 OA
HETATM   12  O   UNK     0       1.000  -1.000   0.000  0.00  0.00    -0.208 OA
HETATM   13  O   UNK     0       0.000   0.000   0.000  0.00  0.00    -0.252 OA
HETATM   14  P   UNK     0       2.000  -1.000   0.000  0.00  0.00     0.465 P 
HETATM   15  O   UNK     0       2.000  -2.000   0.000  0.00  0.00    -0.126 OA
HETATM   16  O   UNK     0       3.000  -1.000   0.000  0.00  0.00    -0.126 OA
HETATM   17  O   UNK     0       2.000   0.000   0.000  0.00  0.00    -0.126 OA
ENDBRANCH   3   8
BRANCH   5  18
HETATM   18  N   UNK     0      -4.848  -1.222   0.000  0.00  0.00    -0.218 N 
HETATM   19  N   UNK     0      -5.799  -0.913   0.000  0.00  0.00    -0.163 NA
HETATM   20  C   UNK     0      -6.387  -1.722   0.000  0.00  0.00     0.298 A 
HETATM   21  N   UNK     0      -5.799  -2.531   0.000  0.00  0.00    -0.239 NA
HETATM   22  C   UNK     0      -4.848  -2.222   0.000  0.00  0.00     0.255 A 
BRANCH  20  23
HETATM   23  C   UNK     0      -7.387  -1.722   0.000  0.00  0.00     0.320 C 
HETATM   24  O   UNK     0      -7.887  -0.856   0.000  0.00  0.00    -0.264 OA
HETATM   25  N   UNK     0      -7.887  -2.588   0.000  0.00  0.00    -0.103 N 
ENDBRANCH  20  23
ENDBRANCH   5  18
TORSDOF 3
