REMARK  4 active torsions:
REMARK  status: ('A' for Active; 'I' for Inactive)
REMARK    1  A    between atoms: O_4  and  N_17 
REMARK    2  A    between atoms: C_5  and  C_6 
REMARK    3  A    between atoms: C_5  and  N_13 
REMARK    4  A    between atoms: C_16  and  C_18 
ROOT
HETATM    1  O   UNK     0       1.321  -4.202   0.000  0.00  0.00    -0.310 OA
HETATM    2  C   UNK     0       0.837  -3.370   0.000  0.00  0.00     0.082 A 
HETATM    3  C   UNK     0       0.834  -2.407   0.000  0.00  0.00     0.240 A 
HETATM    4  O   UNK     0       1.675  -1.915   0.000  0.00  0.00     0.000 OA
HETATM    5  C   UNK     0       1.668  -0.963   0.000  0.00  0.00     0.440 A 
HETATM    6  C   UNK     0       0.834  -0.482   0.000  0.00  0.00     0.075 A 
HETATM    7  C   UNK     0       0.000  -1.926   0.000  0.00  0.00     0.175 A 
HETATM    8  O   UNK     0      -0.834  -1.444   0.000  0.00  0.00    -0.362 OA
HETATM    9  C   UNK     0      -0.840  -0.492   0.000  0.00  0.00     0.114 A 
HETATM   10  O   UNK     0       0.000   0.000   0.000  0.00  0.00     0.000 OA
HETATM   11  C   UNK     0      -1.730   0.021   0.000  0.00  0.00    -0.023 A 
HETATM   12  C   UNK     0      -0.848   0.535   0.000  0.00  0.00     0.055 A 
ENDROOT
BRANCH   4  13
HETATM   13  N   UNK     0       2.925  -2.287   0.000  0.00  0.00     0.415 N 
HETATM   14  N   UNK     0       2.493  -1.439   0.000  0.00  0.00     0.256 N 
HETATM   15  C   UNK     0       3.166  -0.766   0.000  0.00  0.00     0.471 A 
HETATM   16  C   UNK     0       3.865  -2.138   0.000  0.00  0.00     0.562 A 
HETATM   17  N   UNK     0       4.014  -1.198   0.000  0.00  0.00    -0.184 NA
BRANCH  16  18
HETATM   18  C   UNK     0       4.538  -2.811   0.000  0.00  0.00     0.358 C 
HETATM   19  O   UNK     0       4.292  -3.731   0.000  0.00  0.00    -0.262 OA
HETATM   20  N   UNK     0       5.457  -2.565   0.000  0.00  0.00    -0.102 N 
ENDBRANCH  16  18
ENDBRANCH   4  13
TORSDOF 4
