REMARK  4 active torsions:
REMARK  status: ('A' for Active; 'I' for Inactive)
REMARK    1  A    between atoms: C_5  and  C_16 
REMARK    2  A    between atoms: C_7  and  N_8 
REMARK    3  A    between atoms: C_11  and  C_13 
REMARK    4  A    between atoms: Li_22  and  Li_22 
ROOT
HETATM    1  O   UNK     0       3.539  -1.278   0.000  0.00  0.00    -0.288 OA
HETATM    2  C   UNK     0       4.348  -1.866   0.000  0.00  0.00     0.240 A 
HETATM    3  C   UNK     0       5.299  -1.557   0.000  0.00  0.00     0.240 A 
HETATM    4  O   UNK     0       5.608  -0.606   0.000  0.00  0.00    -0.288 OA
HETATM    5  C   UNK     0       5.887  -2.366   0.000  0.00  0.00     0.277 A 
HETATM    6  O   UNK     0       5.299  -3.175   0.000  0.00  0.00    -0.313 OA
HETATM    7  C   UNK     0       4.348  -2.866   0.000  0.00  0.00     0.276 A 
ENDROOT
BRANCH   7   8
HETATM    8  N   UNK     0       3.539  -3.454   0.000  0.00  0.00    -0.218 N 
HETATM    9  N   UNK     0       2.588  -3.145   0.000  0.00  0.00    -0.163 NA
HETATM   10  C   UNK     0       2.000  -3.954   0.000  0.00  0.00     0.298 A 
HETATM   11  N   UNK     0       2.588  -4.763   0.000  0.00  0.00    -0.239 NA
HETATM   12  C   UNK     0       3.539  -4.454   0.000  0.00  0.00     0.255 A 
BRANCH  10  13
HETATM   13  C   UNK     0       1.000  -3.954   0.000  0.00  0.00     0.320 A 
HETATM   14  O   UNK     0       0.500  -3.088   0.000  0.00  0.00    -0.264 OA
HETATM   15  N   UNK     0       0.500  -4.820   0.000  0.00  0.00    -0.103 NA
HETATM   16 Li   UNK     0       0.500  -5.820   0.000  0.00  0.00     0.000 Li
ENDBRANCH  10  13
ENDBRANCH   7   8
BRANCH   5  17
HETATM   17  C   UNK     0       6.887  -2.366   0.000  0.00  0.00     0.341 A 
HETATM   18  O   UNK     0       7.387  -1.500   0.000  0.00  0.00    -0.251 OA
HETATM   19  P   UNK     0       8.387  -1.500   0.000  0.00  0.00     0.397 P 
HETATM   20  O   UNK     0       8.387  -2.500   0.000  0.00  0.00    -0.251 OA
HETATM   21  O   UNK     0       9.387  -1.500   0.000  0.00  0.00    -0.132 OA
HETATM   22  O   UNK     0       8.387  -0.500   0.000  0.00  0.00    -0.132 OA
ENDBRANCH   5  17
TORSDOF 4
