MODEL 1
REMARK VINA RESULT:      -7.7      0.000      0.000
REMARK  3 active torsions:
REMARK  status: ('A' for Active; 'I' for Inactive)
REMARK    1  A    between atoms: C_3  and  C_4 
REMARK    2  A    between atoms: C_15  and  N_18 
REMARK    3  A    between atoms: C_21  and  C_23 
ROOT
HETATM    1  O   UNK     0      29.151  16.071  80.799  0.00  0.00    -0.288 OA
HETATM    2  C   UNK     0      28.884  15.418  80.090  0.00  0.00     0.240 A 
HETATM    3  C   UNK     0      27.948  15.157  79.854  0.00  0.00     0.277 A 
HETATM    4  O   UNK     0      27.991  14.489  79.111  0.00  0.00    -0.313 OA
HETATM    5  C   UNK     0      28.954  14.338  78.888  0.00  0.00     0.276 A 
HETATM    6  C   UNK     0      29.506  14.911  79.493  0.00  0.00     0.240 A 
HETATM    7  O   UNK     0      30.504  14.969  79.501  0.00  0.00    -0.288 OA
ENDROOT
BRANCH   3   8
HETATM    8  C   UNK     0      27.114  15.503  80.285  0.00  0.00     0.340 A 
HETATM    9  O   UNK     0      26.400  15.925  79.726  0.00  0.00    -0.252 OA
HETATM   10  P   UNK     0      25.567  16.271  80.157  0.00  0.00     0.388 P 
HETATM   11  O   UNK     0      25.224  16.558  79.263  0.00  0.00    -0.133 OA
HETATM   12  O   UNK     0      24.734  16.617  80.588  0.00  0.00    -0.208 OA
HETATM   13  O   UNK     0      25.910  15.984  81.051  0.00  0.00    -0.252 OA
HETATM   14  P   UNK     0      23.900  16.963  81.019  0.00  0.00     0.465 P 
HETATM   15  O   UNK     0      23.557  17.251  80.125  0.00  0.00    -0.126 OA
HETATM   16  O   UNK     0      23.067  17.310  81.450  0.00  0.00    -0.126 OA
HETATM   17  O   UNK     0      24.244  16.676  81.914  0.00  0.00    -0.126 OA
ENDBRANCH   3   8
BRANCH   5  18
HETATM   18  N   UNK     0      29.304  13.720  78.183  0.00  0.00    -0.218 N 
HETATM   19  N   UNK     0      29.401  13.933  77.211  0.00  0.00    -0.163 NA
HETATM   20  C   UNK     0      29.775  13.126  76.754  0.00  0.00     0.298 A 
HETATM   21  N   UNK     0      29.910  12.415  77.444  0.00  0.00    -0.239 NA
HETATM   22  C   UNK     0      29.619  12.782  78.327  0.00  0.00     0.255 A 
BRANCH  20  23
HETATM   23  C   UNK     0      29.979  13.044  75.778  0.00  0.00     0.320 C 
HETATM   24  O   UNK     0      29.998  13.861  75.202  0.00  0.00    -0.264 OA
HETATM   25  N   UNK     0      30.163  12.146  75.379  0.00  0.00    -0.103 N 
ENDBRANCH  20  23
ENDBRANCH   5  18
TORSDOF 3
ENDMDL
MODEL 2
REMARK VINA RESULT:      -7.7      2.400      3.692
REMARK  3 active torsions:
REMARK  status: ('A' for Active; 'I' for Inactive)
REMARK    1  A    between atoms: C_3  and  C_4 
REMARK    2  A    between atoms: C_15  and  N_18 
REMARK    3  A    between atoms: C_21  and  C_23 
ROOT
HETATM    1  O   UNK     0      24.934  14.462  82.580  0.00  0.00    -0.288 OA
HETATM    2  C   UNK     0      25.465  14.914  81.863  0.00  0.00     0.240 A 
HETATM    3  C   UNK     0      25.181  15.719  81.341  0.00  0.00     0.277 A 
HETATM    4  O   UNK     0      25.913  15.943  80.698  0.00  0.00    -0.313 OA
HETATM    5  C   UNK     0      26.649  15.278  80.822  0.00  0.00     0.276 A 
HETATM    6  C   UNK     0      26.372  14.642  81.542  0.00  0.00     0.240 A 
HETATM    7  O   UNK     0      26.908  13.869  81.882  0.00  0.00    -0.288 OA
ENDROOT
BRANCH   3   8
HETATM    8  C   UNK     0      24.317  16.212  81.444  0.00  0.00     0.340 A 
HETATM    9  O   UNK     0      24.287  17.202  81.306  0.00  0.00    -0.252 OA
HETATM   10  P   UNK     0      23.423  17.695  81.409  0.00  0.00     0.388 P 
HETATM   11  O   UNK     0      23.886  18.553  81.190  0.00  0.00    -0.133 OA
HETATM   12  O   UNK     0      22.559  18.188  81.512  0.00  0.00    -0.208 OA
HETATM   13  O   UNK     0      22.959  16.836  81.629  0.00  0.00    -0.252 OA
HETATM   14  P   UNK     0      21.695  18.681  81.616  0.00  0.00     0.465 P 
HETATM   15  O   UNK     0      22.159  19.539  81.396  0.00  0.00    -0.126 OA
HETATM   16  O   UNK     0      20.831  19.174  81.719  0.00  0.00    -0.126 OA
HETATM   17  O   UNK     0      21.231  17.822  81.835  0.00  0.00    -0.126 OA
ENDBRANCH   3   8
BRANCH   5  18
HETATM   18  N   UNK     0      27.510  15.253  80.315  0.00  0.00    -0.218 N 
HETATM   19  N   UNK     0      28.369  15.682  80.594  0.00  0.00    -0.163 NA
HETATM   20  C   UNK     0      29.054  15.489  79.892  0.00  0.00     0.298 A 
HETATM   21  N   UNK     0      28.618  14.941  79.178  0.00  0.00    -0.239 NA
HETATM   22  C   UNK     0      27.664  14.795  79.439  0.00  0.00     0.255 A 
BRANCH  20  23
HETATM   23  C   UNK     0      30.008  15.791  79.901  0.00  0.00     0.320 C 
HETATM   24  O   UNK     0      30.512  15.882  79.043  0.00  0.00    -0.264 OA
HETATM   25  N   UNK     0      30.456  16.002  80.770  0.00  0.00    -0.103 N 
ENDBRANCH  20  23
ENDBRANCH   5  18
TORSDOF 3
ENDMDL
MODEL 3
REMARK VINA RESULT:      -7.5      4.624      7.165
REMARK  3 active torsions:
REMARK  status: ('A' for Active; 'I' for Inactive)
REMARK    1  A    between atoms: C_3  and  C_4 
REMARK    2  A    between atoms: C_15  and  N_18 
REMARK    3  A    between atoms: C_21  and  C_23 
ROOT
HETATM    1  O   UNK     0      26.012  15.093  83.475  0.00  0.00    -0.288 OA
HETATM    2  C   UNK     0      25.391  15.461  82.782  0.00  0.00     0.240 A 
HETATM    3  C   UNK     0      25.516  15.403  81.792  0.00  0.00     0.277 A 
HETATM    4  O   UNK     0      24.739  15.858  81.356  0.00  0.00    -0.313 OA
HETATM    5  C   UNK     0      24.134  16.196  82.077  0.00  0.00     0.276 A 
HETATM    6  C   UNK     0      24.537  15.950  82.958  0.00  0.00     0.240 A 
HETATM    7  O   UNK     0      24.154  16.158  83.858  0.00  0.00    -0.288 OA
ENDROOT
BRANCH   3   8
HETATM    8  C   UNK     0      26.283  14.968  81.320  0.00  0.00     0.340 A 
HETATM    9  O   UNK     0      26.739  15.440  80.565  0.00  0.00    -0.252 OA
HETATM   10  P   UNK     0      27.506  15.005  80.094  0.00  0.00     0.388 P 
HETATM   11  O   UNK     0      27.589  15.801  79.494  0.00  0.00    -0.133 OA
HETATM   12  O   UNK     0      28.273  14.570  79.622  0.00  0.00    -0.208 OA
HETATM   13  O   UNK     0      27.423  14.209  80.693  0.00  0.00    -0.252 OA
HETATM   14  P   UNK     0      29.040  14.135  79.150  0.00  0.00     0.465 P 
HETATM   15  O   UNK     0      29.123  14.931  78.551  0.00  0.00    -0.126 OA
HETATM   16  O   UNK     0      29.807  13.700  78.679  0.00  0.00    -0.126 OA
HETATM   17  O   UNK     0      28.957  13.339  79.750  0.00  0.00    -0.126 OA
ENDBRANCH   3   8
BRANCH   5  18
HETATM   18  N   UNK     0      23.277  16.692  81.940  0.00  0.00    -0.218 N 
HETATM   19  N   UNK     0      23.167  17.686  81.938  0.00  0.00    -0.163 NA
HETATM   20  C   UNK     0      22.201  17.890  81.777  0.00  0.00     0.298 A 
HETATM   21  N   UNK     0      21.714  17.021  81.680  0.00  0.00    -0.239 NA
HETATM   22  C   UNK     0      22.379  16.281  81.781  0.00  0.00     0.255 A 
BRANCH  20  23
HETATM   23  C   UNK     0      21.794  18.801  81.724  0.00  0.00     0.320 C 
HETATM   24  O   UNK     0      22.381  19.611  81.704  0.00  0.00    -0.264 OA
HETATM   25  N   UNK     0      20.800  18.904  81.689  0.00  0.00    -0.103 N 
ENDBRANCH  20  23
ENDBRANCH   5  18
TORSDOF 3
ENDMDL
MODEL 4
REMARK VINA RESULT:      -7.4     22.124     23.360
REMARK  3 active torsions:
REMARK  status: ('A' for Active; 'I' for Inactive)
REMARK    1  A    between atoms: C_3  and  C_4 
REMARK    2  A    between atoms: C_15  and  N_18 
REMARK    3  A    between atoms: C_21  and  C_23 
ROOT
HETATM    1  O   UNK     0      15.022  13.511  62.538  0.00  0.00    -0.288 OA
HETATM    2  C   UNK     0      14.903  13.847  61.604  0.00  0.00     0.240 A 
HETATM    3  C   UNK     0      14.030  14.013  61.146  0.00  0.00     0.277 A 
HETATM    4  O   UNK     0      14.224  14.345  60.223  0.00  0.00    -0.313 OA
HETATM    5  C   UNK     0      15.217  14.385  60.111  0.00  0.00     0.276 A 
HETATM    6  C   UNK     0      15.637  14.077  60.965  0.00  0.00     0.240 A 
HETATM    7  O   UNK     0      16.618  14.011  61.147  0.00  0.00    -0.288 OA
ENDROOT
BRANCH   3   8
HETATM    8  C   UNK     0      13.122  13.871  61.541  0.00  0.00     0.340 A 
HETATM    9  O   UNK     0      12.427  13.369  61.028  0.00  0.00    -0.252 OA
HETATM   10  P   UNK     0      11.519  13.227  61.423  0.00  0.00     0.388 P 
HETATM   11  O   UNK     0      11.240  12.729  60.602  0.00  0.00    -0.133 OA
HETATM   12  O   UNK     0      10.611  13.085  61.818  0.00  0.00    -0.208 OA
HETATM   13  O   UNK     0      11.798  13.725  62.244  0.00  0.00    -0.252 OA
HETATM   14  P   UNK     0       9.704  12.944  62.213  0.00  0.00     0.465 P 
HETATM   15  O   UNK     0       9.424  12.445  61.392  0.00  0.00    -0.126 OA
HETATM   16  O   UNK     0       8.796  12.802  62.608  0.00  0.00    -0.126 OA
HETATM   17  O   UNK     0       9.983  13.442  63.034  0.00  0.00    -0.126 OA
ENDBRANCH   3   8
BRANCH   5  18
HETATM   18  N   UNK     0      15.704  14.681  59.289  0.00  0.00    -0.218 N 
HETATM   19  N   UNK     0      16.066  15.597  59.118  0.00  0.00    -0.163 NA
HETATM   20  C   UNK     0      16.501  15.595  58.217  0.00  0.00     0.298 A 
HETATM   21  N   UNK     0      16.408  14.677  57.832  0.00  0.00    -0.239 NA
HETATM   22  C   UNK     0      15.916  14.112  58.494  0.00  0.00     0.255 A 
BRANCH  20  23
HETATM   23  C   UNK     0      16.949  16.374  57.779  0.00  0.00     0.320 C 
HETATM   24  O   UNK     0      17.771  16.772  58.187  0.00  0.00    -0.264 OA
HETATM   25  N   UNK     0      16.576  16.755  56.934  0.00  0.00    -0.103 N 
ENDBRANCH  20  23
ENDBRANCH   5  18
TORSDOF 3
ENDMDL
MODEL 5
REMARK VINA RESULT:      -7.4     22.657     23.677
REMARK  3 active torsions:
REMARK  status: ('A' for Active; 'I' for Inactive)
REMARK    1  A    between atoms: C_3  and  C_4 
REMARK    2  A    between atoms: C_15  and  N_18 
REMARK    3  A    between atoms: C_21  and  C_23 
ROOT
HETATM    1  O   UNK     0      16.613  17.379  56.295  0.00  0.00    -0.288 OA
HETATM    2  C   UNK     0      17.584  17.354  56.531  0.00  0.00     0.240 A 
HETATM    3  C   UNK     0      17.985  16.894  57.324  0.00  0.00     0.277 A 
HETATM    4  O   UNK     0      18.974  17.040  57.299  0.00  0.00    -0.313 OA
HETATM    5  C   UNK     0      19.184  17.591  56.492  0.00  0.00     0.276 A 
HETATM    6  C   UNK     0      18.326  17.785  56.017  0.00  0.00     0.240 A 
HETATM    7  O   UNK     0      18.226  18.317  55.176  0.00  0.00    -0.288 OA
ENDROOT
BRANCH   3   8
HETATM    8  C   UNK     0      17.484  16.378  58.019  0.00  0.00     0.340 A 
HETATM    9  O   UNK     0      17.908  15.584  58.454  0.00  0.00    -0.252 OA
HETATM   10  P   UNK     0      17.408  15.068  59.149  0.00  0.00     0.388 P 
HETATM   11  O   UNK     0      18.187  14.449  59.251  0.00  0.00    -0.133 OA
HETATM   12  O   UNK     0      16.907  14.552  59.844  0.00  0.00    -0.208 OA
HETATM   13  O   UNK     0      16.629  15.686  59.048  0.00  0.00    -0.252 OA
HETATM   14  P   UNK     0      16.406  14.036  60.539  0.00  0.00     0.465 P 
HETATM   15  O   UNK     0      17.185  13.417  60.641  0.00  0.00    -0.126 OA
HETATM   16  O   UNK     0      15.906  13.519  61.234  0.00  0.00    -0.126 OA
HETATM   17  O   UNK     0      15.627  14.654  60.437  0.00  0.00    -0.126 OA
ENDBRANCH   3   8
BRANCH   5  18
HETATM   18  N   UNK     0      20.094  17.895  56.208  0.00  0.00    -0.218 N 
HETATM   19  N   UNK     0      20.558  18.726  56.514  0.00  0.00    -0.163 NA
HETATM   20  C   UNK     0      21.450  18.766  56.065  0.00  0.00     0.298 A 
HETATM   21  N   UNK     0      21.538  17.958  55.481  0.00  0.00    -0.239 NA
HETATM   22  C   UNK     0      20.700  17.420  55.570  0.00  0.00     0.255 A 
BRANCH  20  23
HETATM   23  C   UNK     0      22.135  19.486  56.178  0.00  0.00     0.320 C 
HETATM   24  O   UNK     0      22.913  19.344  56.790  0.00  0.00    -0.264 OA
HETATM   25  N   UNK     0      22.041  20.348  55.680  0.00  0.00    -0.103 N 
ENDBRANCH  20  23
ENDBRANCH   5  18
TORSDOF 3
ENDMDL
MODEL 6
REMARK VINA RESULT:      -7.4     22.009     24.173
REMARK  3 active torsions:
REMARK  status: ('A' for Active; 'I' for Inactive)
REMARK    1  A    between atoms: C_3  and  C_4 
REMARK    2  A    between atoms: C_15  and  N_18 
REMARK    3  A    between atoms: C_21  and  C_23 
ROOT
HETATM    1  O   UNK     0      17.596  16.533  55.215  0.00  0.00    -0.288 OA
HETATM    2  C   UNK     0      17.569  16.554  56.214  0.00  0.00     0.240 A 
HETATM    3  C   UNK     0      18.170  17.090  56.807  0.00  0.00     0.277 A 
HETATM    4  O   UNK     0      17.909  16.910  57.755  0.00  0.00    -0.313 OA
HETATM    5  C   UNK     0      17.146  16.263  57.748  0.00  0.00     0.276 A 
HETATM    6  C   UNK     0      16.936  16.043  56.796  0.00  0.00     0.240 A 
HETATM    7  O   UNK     0      16.220  15.421  56.480  0.00  0.00    -0.288 OA
ENDROOT
BRANCH   3   8
HETATM    8  C   UNK     0      18.903  17.700  56.504  0.00  0.00     0.340 A 
HETATM    9  O   UNK     0      19.751  17.761  57.031  0.00  0.00    -0.252 OA
HETATM   10  P   UNK     0      20.484  18.370  56.728  0.00  0.00     0.388 P 
HETATM   11  O   UNK     0      21.040  18.089  57.510  0.00  0.00    -0.133 OA
HETATM   12  O   UNK     0      21.218  18.979  56.426  0.00  0.00    -0.208 OA
HETATM   13  O   UNK     0      19.928  18.651  55.946  0.00  0.00    -0.252 OA
HETATM   14  P   UNK     0      21.951  19.588  56.123  0.00  0.00     0.465 P 
HETATM   15  O   UNK     0      22.507  19.307  56.906  0.00  0.00    -0.126 OA
HETATM   16  O   UNK     0      22.684  20.197  55.821  0.00  0.00    -0.126 OA
HETATM   17  O   UNK     0      21.395  19.869  55.341  0.00  0.00    -0.126 OA
ENDBRANCH   3   8
BRANCH   5  18
HETATM   18  N   UNK     0      16.677  15.900  58.553  0.00  0.00    -0.218 N 
HETATM   19  N   UNK     0      17.006  15.162  59.142  0.00  0.00    -0.163 NA
HETATM   20  C   UNK     0      16.329  15.016  59.863  0.00  0.00     0.298 A 
HETATM   21  N   UNK     0      15.580  15.664  59.719  0.00  0.00    -0.239 NA
HETATM   22  C   UNK     0      15.796  16.210  58.910  0.00  0.00     0.255 A 
BRANCH  20  23
HETATM   23  C   UNK     0      16.388  14.342  60.599  0.00  0.00     0.320 C 
HETATM   24  O   UNK     0      17.276  14.118  61.001  0.00  0.00    -0.264 OA
HETATM   25  N   UNK     0      15.561  13.891  60.933  0.00  0.00    -0.103 N 
ENDBRANCH  20  23
ENDBRANCH   5  18
TORSDOF 3
ENDMDL
MODEL 7
REMARK VINA RESULT:      -7.2      4.179      7.238
REMARK  3 active torsions:
REMARK  status: ('A' for Active; 'I' for Inactive)
REMARK    1  A    between atoms: C_3  and  C_4 
REMARK    2  A    between atoms: C_15  and  N_18 
REMARK    3  A    between atoms: C_21  and  C_23 
ROOT
HETATM    1  O   UNK     0      30.309  12.912  75.032  0.00  0.00    -0.288 OA
HETATM    2  C   UNK     0      29.947  12.901  75.964  0.00  0.00     0.240 A 
HETATM    3  C   UNK     0      29.488  12.131  76.407  0.00  0.00     0.277 A 
HETATM    4  O   UNK     0      29.237  12.412  77.333  0.00  0.00    -0.313 OA
HETATM    5  C   UNK     0      29.541  13.356  77.463  0.00  0.00     0.276 A 
HETATM    6  C   UNK     0      29.980  13.658  76.616  0.00  0.00     0.240 A 
HETATM    7  O   UNK     0      30.381  14.559  76.451  0.00  0.00    -0.288 OA
ENDROOT
BRANCH   3   8
HETATM    8  C   UNK     0      29.311  11.237  75.996  0.00  0.00     0.340 A 
HETATM    9  O   UNK     0      29.472  10.403  76.524  0.00  0.00    -0.252 OA
HETATM   10  P   UNK     0      29.295   9.509  76.113  0.00  0.00     0.388 P 
HETATM   11  O   UNK     0      29.584   9.062  76.960  0.00  0.00    -0.133 OA
HETATM   12  O   UNK     0      29.118   8.614  75.702  0.00  0.00    -0.208 OA
HETATM   13  O   UNK     0      29.006   9.955  75.266  0.00  0.00    -0.252 OA
HETATM   14  P   UNK     0      28.940   7.720  75.291  0.00  0.00     0.465 P 
HETATM   15  O   UNK     0      29.229   7.274  76.137  0.00  0.00    -0.126 OA
HETATM   16  O   UNK     0      28.763   6.826  74.879  0.00  0.00    -0.126 OA
HETATM   17  O   UNK     0      28.652   8.167  74.444  0.00  0.00    -0.126 OA
ENDBRANCH   3   8
BRANCH   5  18
HETATM   18  N   UNK     0      29.427  13.902  78.293  0.00  0.00    -0.218 N 
HETATM   19  N   UNK     0      28.609  14.418  78.549  0.00  0.00    -0.163 NA
HETATM   20  C   UNK     0      28.786  14.862  79.427  0.00  0.00     0.298 A 
HETATM   21  N   UNK     0      29.714  14.621  79.714  0.00  0.00    -0.239 NA
HETATM   22  C   UNK     0      30.109  14.027  79.013  0.00  0.00     0.255 A 
BRANCH  20  23
HETATM   23  C   UNK     0      28.148  15.445  79.930  0.00  0.00     0.320 C 
HETATM   24  O   UNK     0      27.930  16.359  79.587  0.00  0.00    -0.264 OA
HETATM   25  N   UNK     0      27.729  15.115  80.776  0.00  0.00    -0.103 N 
ENDBRANCH  20  23
ENDBRANCH   5  18
TORSDOF 3
ENDMDL
MODEL 8
REMARK VINA RESULT:      -7.2     21.954     23.237
REMARK  3 active torsions:
REMARK  status: ('A' for Active; 'I' for Inactive)
REMARK    1  A    between atoms: C_3  and  C_4 
REMARK    2  A    between atoms: C_15  and  N_18 
REMARK    3  A    between atoms: C_21  and  C_23 
ROOT
HETATM    1  O   UNK     0      17.196  13.911  61.067  0.00  0.00    -0.288 OA
HETATM    2  C   UNK     0      16.931  14.418  60.248  0.00  0.00     0.240 A 
HETATM    3  C   UNK     0      15.996  14.648  59.975  0.00  0.00     0.277 A 
HETATM    4  O   UNK     0      16.042  15.157  59.116  0.00  0.00    -0.313 OA
HETATM    5  C   UNK     0      17.004  15.243  58.858  0.00  0.00     0.276 A 
HETATM    6  C   UNK     0      17.553  14.786  59.557  0.00  0.00     0.240 A 
HETATM    7  O   UNK     0      18.551  14.711  59.565  0.00  0.00    -0.288 OA
ENDROOT
BRANCH   3   8
HETATM    8  C   UNK     0      15.163  14.409  60.474  0.00  0.00     0.340 A 
HETATM    9  O   UNK     0      14.360  14.079  59.977  0.00  0.00    -0.252 OA
HETATM   10  P   UNK     0      13.527  13.840  60.476  0.00  0.00     0.388 P 
HETATM   11  O   UNK     0      13.081  13.597  59.614  0.00  0.00    -0.133 OA
HETATM   12  O   UNK     0      12.694  13.602  60.974  0.00  0.00    -0.208 OA
HETATM   13  O   UNK     0      13.973  14.084  61.337  0.00  0.00    -0.252 OA
HETATM   14  P   UNK     0      11.860  13.364  61.473  0.00  0.00     0.465 P 
HETATM   15  O   UNK     0      11.415  13.120  60.612  0.00  0.00    -0.126 OA
HETATM   16  O   UNK     0      11.027  13.125  61.972  0.00  0.00    -0.126 OA
HETATM   17  O   UNK     0      12.306  13.607  62.334  0.00  0.00    -0.126 OA
ENDBRANCH   3   8
BRANCH   5  18
HETATM   18  N   UNK     0      17.355  15.704  58.043  0.00  0.00    -0.218 N 
HETATM   19  N   UNK     0      17.864  16.565  58.028  0.00  0.00    -0.163 NA
HETATM   20  C   UNK     0      18.082  16.779  57.076  0.00  0.00     0.298 A 
HETATM   21  N   UNK     0      17.709  16.050  56.502  0.00  0.00    -0.239 NA
HETATM   22  C   UNK     0      17.260  15.386  57.100  0.00  0.00     0.255 A 
BRANCH  20  23
HETATM   23  C   UNK     0      18.586  17.581  56.754  0.00  0.00     0.320 C 
HETATM   24  O   UNK     0      19.360  17.930  57.282  0.00  0.00    -0.264 OA
HETATM   25  N   UNK     0      18.316  18.033  55.904  0.00  0.00    -0.103 N 
ENDBRANCH  20  23
ENDBRANCH   5  18
TORSDOF 3
ENDMDL
MODEL 9
REMARK VINA RESULT:      -7.0     15.441     16.558
REMARK  3 active torsions:
REMARK  status: ('A' for Active; 'I' for Inactive)
REMARK    1  A    between atoms: C_3  and  C_4 
REMARK    2  A    between atoms: C_15  and  N_18 
REMARK    3  A    between atoms: C_21  and  C_23 
ROOT
HETATM    1  O   UNK     0      22.090  32.099  75.812  0.00  0.00    -0.288 OA
HETATM    2  C   UNK     0      22.890  31.635  75.431  0.00  0.00     0.240 A 
HETATM    3  C   UNK     0      23.594  31.153  75.953  0.00  0.00     0.277 A 
HETATM    4  O   UNK     0      24.266  30.792  75.306  0.00  0.00    -0.313 OA
HETATM    5  C   UNK     0      23.977  31.051  74.384  0.00  0.00     0.276 A 
HETATM    6  C   UNK     0      23.127  31.573  74.462  0.00  0.00     0.240 A 
HETATM    7  O   UNK     0      22.606  31.963  73.703  0.00  0.00    -0.288 OA
ENDROOT
BRANCH   3   8
HETATM    8  C   UNK     0      23.621  31.049  76.948  0.00  0.00     0.340 A 
HETATM    9  O   UNK     0      23.649  30.136  77.355  0.00  0.00    -0.252 OA
HETATM   10  P   UNK     0      23.676  30.033  78.349  0.00  0.00     0.388 P 
HETATM   11  O   UNK     0      23.693  29.038  78.245  0.00  0.00    -0.133 OA
HETATM   12  O   UNK     0      23.703  29.929  79.343  0.00  0.00    -0.208 OA
HETATM   13  O   UNK     0      23.659  31.027  78.453  0.00  0.00    -0.252 OA
HETATM   14  P   UNK     0      23.731  29.826  80.337  0.00  0.00     0.465 P 
HETATM   15  O   UNK     0      23.748  28.831  80.233  0.00  0.00    -0.126 OA
HETATM   16  O   UNK     0      23.758  29.722  81.332  0.00  0.00    -0.126 OA
HETATM   17  O   UNK     0      23.713  30.820  80.441  0.00  0.00    -0.126 OA
ENDBRANCH   3   8
BRANCH   5  18
HETATM   18  N   UNK     0      24.455  30.829  73.535  0.00  0.00    -0.218 N 
HETATM   19  N   UNK     0      24.400  29.962  73.039  0.00  0.00    -0.163 NA
HETATM   20  C   UNK     0      24.982  30.031  72.229  0.00  0.00     0.298 A 
HETATM   21  N   UNK     0      25.398  30.941  72.224  0.00  0.00    -0.239 NA
HETATM   22  C   UNK     0      25.072  31.434  73.031  0.00  0.00     0.255 A 
BRANCH  20  23
HETATM   23  C   UNK     0      25.125  29.316  71.545  0.00  0.00     0.320 C 
HETATM   24  O   UNK     0      24.396  28.659  71.349  0.00  0.00    -0.264 OA
HETATM   25  N   UNK     0      25.995  29.257  71.056  0.00  0.00    -0.103 N 
ENDBRANCH  20  23
ENDBRANCH   5  18
TORSDOF 3
ENDMDL
