MODEL 1
REMARK VINA RESULT:      -6.5      0.000      0.000
REMARK  2 active torsions:
REMARK  status: ('A' for Active; 'I' for Inactive)
REMARK    1  A    between atoms: C_5  and  N_10 
REMARK    2  A    between atoms: C_13  and  C_15 
ROOT
HETATM    1  O   UNK     0      21.518  18.470  81.958  0.00  0.00     0.000 OA
HETATM    2  C   UNK     0      22.443  18.841  81.893  0.00  0.00     0.017 A 
HETATM    3  C   UNK     0      23.156  18.326  81.417  0.00  0.00     0.137 A 
HETATM    4  O   UNK     0      23.963  17.930  80.978  0.00  0.00    -0.357 OA
HETATM    5  C   UNK     0      23.700  17.049  80.585  0.00  0.00     0.428 A 
HETATM    6  C   UNK     0      22.731  16.900  80.780  0.00  0.00     0.102 A 
HETATM    7  C   UNK     0      22.395  17.689  81.295  0.00  0.00     0.219 A 
HETATM    8  O   UNK     0      21.454  17.361  81.387  0.00  0.00    -0.232 OA
HETATM    9  O   UNK     0      22.668  16.011  80.326  0.00  0.00     0.000 OA
ENDROOT
BRANCH   5  10
HETATM   10  N   UNK     0      24.601  16.829  80.212  0.00  0.00    -0.283 N 
HETATM   11  N   UNK     0      25.276  16.219  80.627  0.00  0.00    -0.217 NA
HETATM   12  C   UNK     0      26.078  16.192  80.031  0.00  0.00     0.250 A 
HETATM   13  N   UNK     0      25.899  16.785  79.246  0.00  0.00    -0.247 NA
HETATM   14  C   UNK     0      24.987  17.179  79.357  0.00  0.00     0.239 A 
BRANCH  12  15
HETATM   15  C   UNK     0      26.913  15.664  80.190  0.00  0.00     0.312 C 
HETATM   16  O   UNK     0      27.565  15.524  79.446  0.00  0.00    -0.265 OA
HETATM   17  N   UNK     0      27.094  15.277  81.095  0.00  0.00    -0.104 N 
ENDBRANCH  12  15
ENDBRANCH   5  10
TORSDOF 2
ENDMDL
MODEL 2
REMARK VINA RESULT:      -6.3     10.909     11.740
REMARK  2 active torsions:
REMARK  status: ('A' for Active; 'I' for Inactive)
REMARK    1  A    between atoms: C_5  and  N_10 
REMARK    2  A    between atoms: C_13  and  C_15 
ROOT
HETATM    1  O   UNK     0      32.624  23.529  79.750  0.00  0.00     0.000 OA
HETATM    2  C   UNK     0      32.272  24.326  79.260  0.00  0.00     0.017 A 
HETATM    3  C   UNK     0      32.108  24.274  78.274  0.00  0.00     0.137 A 
HETATM    4  O   UNK     0      31.897  24.372  77.302  0.00  0.00    -0.357 OA
HETATM    5  C   UNK     0      32.101  23.502  76.852  0.00  0.00     0.428 A 
HETATM    6  C   UNK     0      32.437  22.866  77.547  0.00  0.00     0.102 A 
HETATM    7  C   UNK     0      32.442  23.344  78.426  0.00  0.00     0.219 A 
HETATM    8  O   UNK     0      32.793  22.575  78.962  0.00  0.00    -0.232 OA
HETATM    9  O   UNK     0      32.576  22.095  76.926  0.00  0.00     0.000 OA
ENDROOT
BRANCH   5  10
HETATM   10  N   UNK     0      31.836  23.794  75.934  0.00  0.00    -0.283 N 
HETATM   11  N   UNK     0      32.308  24.475  75.375  0.00  0.00    -0.217 NA
HETATM   12  C   UNK     0      31.816  24.559  74.508  0.00  0.00     0.250 A 
HETATM   13  N   UNK     0      31.040  23.929  74.532  0.00  0.00    -0.247 NA
HETATM   14  C   UNK     0      31.051  23.457  75.412  0.00  0.00     0.239 A 
BRANCH  12  15
HETATM   15  C   UNK     0      32.059  25.166  73.751  0.00  0.00     0.312 C 
HETATM   16  O   UNK     0      31.459  25.929  73.511  0.00  0.00    -0.265 OA
HETATM   17  N   UNK     0      32.900  25.009  73.234  0.00  0.00    -0.104 N 
ENDBRANCH  12  15
ENDBRANCH   5  10
TORSDOF 2
ENDMDL
MODEL 3
REMARK VINA RESULT:      -6.2     10.892     12.369
REMARK  2 active torsions:
REMARK  status: ('A' for Active; 'I' for Inactive)
REMARK    1  A    between atoms: C_5  and  N_10 
REMARK    2  A    between atoms: C_13  and  C_15 
ROOT
HETATM    1  O   UNK     0      32.827  25.489  72.723  0.00  0.00     0.000 OA
HETATM    2  C   UNK     0      33.477  25.353  73.470  0.00  0.00     0.017 A 
HETATM    3  C   UNK     0      33.178  24.916  74.319  0.00  0.00     0.137 A 
HETATM    4  O   UNK     0      33.028  24.500  75.215  0.00  0.00    -0.357 OA
HETATM    5  C   UNK     0      32.071  24.216  75.268  0.00  0.00     0.428 A 
HETATM    6  C   UNK     0      31.629  24.457  74.404  0.00  0.00     0.102 A 
HETATM    7  C   UNK     0      32.314  24.890  73.817  0.00  0.00     0.219 A 
HETATM    8  O   UNK     0      31.703  25.048  73.041  0.00  0.00    -0.232 OA
HETATM    9  O   UNK     0      30.724  24.108  74.648  0.00  0.00     0.000 OA
ENDROOT
BRANCH   5  10
HETATM   10  N   UNK     0      32.123  23.843  76.194  0.00  0.00    -0.283 N 
HETATM   11  N   UNK     0      32.079  24.369  77.043  0.00  0.00    -0.217 NA
HETATM   12  C   UNK     0      32.158  23.729  77.808  0.00  0.00     0.250 A 
HETATM   13  N   UNK     0      32.250  22.807  77.431  0.00  0.00    -0.247 NA
HETATM   14  C   UNK     0      32.229  22.877  76.434  0.00  0.00     0.239 A 
BRANCH  12  15
HETATM   15  C   UNK     0      32.145  23.969  78.779  0.00  0.00     0.312 C 
HETATM   16  O   UNK     0      31.908  23.278  79.461  0.00  0.00    -0.265 OA
HETATM   17  N   UNK     0      32.371  24.899  79.067  0.00  0.00    -0.104 N 
ENDBRANCH  12  15
ENDBRANCH   5  10
TORSDOF 2
ENDMDL
MODEL 4
REMARK VINA RESULT:      -6.0      1.574      4.501
REMARK  2 active torsions:
REMARK  status: ('A' for Active; 'I' for Inactive)
REMARK    1  A    between atoms: C_5  and  N_10 
REMARK    2  A    between atoms: C_13  and  C_15 
ROOT
HETATM    1  O   UNK     0      27.732  15.318  80.316  0.00  0.00     0.000 OA
HETATM    2  C   UNK     0      27.039  15.147  81.016  0.00  0.00     0.017 A 
HETATM    3  C   UNK     0      26.142  15.585  80.948  0.00  0.00     0.137 A 
HETATM    4  O   UNK     0      25.212  15.947  81.015  0.00  0.00    -0.357 OA
HETATM    5  C   UNK     0      25.057  16.545  80.229  0.00  0.00     0.428 A 
HETATM    6  C   UNK     0      25.891  16.554  79.677  0.00  0.00     0.102 A 
HETATM    7  C   UNK     0      26.562  15.960  80.122  0.00  0.00     0.219 A 
HETATM    8  O   UNK     0      27.288  16.098  79.448  0.00  0.00    -0.232 OA
HETATM    9  O   UNK     0      25.546  17.178  78.976  0.00  0.00     0.000 OA
ENDROOT
BRANCH   5  10
HETATM   10  N   UNK     0      24.119  16.792  80.470  0.00  0.00    -0.283 N 
HETATM   11  N   UNK     0      23.844  17.547  81.065  0.00  0.00    -0.217 NA
HETATM   12  C   UNK     0      22.846  17.550  81.121  0.00  0.00     0.250 A 
HETATM   13  N   UNK     0      22.503  16.796  80.560  0.00  0.00    -0.247 NA
HETATM   14  C   UNK     0      23.289  16.328  80.157  0.00  0.00     0.239 A 
BRANCH  12  15
HETATM   15  C   UNK     0      22.288  18.193  81.646  0.00  0.00     0.312 C 
HETATM   16  O   UNK     0      22.719  18.968  82.107  0.00  0.00    -0.265 OA
HETATM   17  N   UNK     0      21.298  18.061  81.709  0.00  0.00    -0.104 N 
ENDBRANCH  12  15
ENDBRANCH   5  10
TORSDOF 2
ENDMDL
MODEL 5
REMARK VINA RESULT:      -5.8      1.007      1.699
REMARK  2 active torsions:
REMARK  status: ('A' for Active; 'I' for Inactive)
REMARK    1  A    between atoms: C_5  and  N_10 
REMARK    2  A    between atoms: C_13  and  C_15 
ROOT
HETATM    1  O   UNK     0      20.786  17.474  81.064  0.00  0.00     0.000 OA
HETATM    2  C   UNK     0      21.196  16.679  80.618  0.00  0.00     0.017 A 
HETATM    3  C   UNK     0      22.176  16.501  80.715  0.00  0.00     0.137 A 
HETATM    4  O   UNK     0      23.129  16.198  80.722  0.00  0.00    -0.357 OA
HETATM    5  C   UNK     0      23.655  16.843  81.276  0.00  0.00     0.428 A 
HETATM    6  C   UNK     0      23.027  17.545  81.612  0.00  0.00     0.102 A 
HETATM    7  C   UNK     0      22.113  17.334  81.265  0.00  0.00     0.219 A 
HETATM    8  O   UNK     0      21.655  18.115  81.692  0.00  0.00    -0.232 OA
HETATM    9  O   UNK     0      23.714  18.067  82.117  0.00  0.00     0.000 OA
ENDROOT
BRANCH   5  10
HETATM   10  N   UNK     0      24.536  16.385  81.161  0.00  0.00    -0.283 N 
HETATM   11  N   UNK     0      25.216  16.587  80.458  0.00  0.00    -0.217 NA
HETATM   12  C   UNK     0      25.992  15.971  80.592  0.00  0.00     0.250 A 
HETATM   13  N   UNK     0      25.791  15.388  81.379  0.00  0.00    -0.247 NA
HETATM   14  C   UNK     0      24.891  15.643  81.731  0.00  0.00     0.239 A 
BRANCH  12  15
HETATM   15  C   UNK     0      26.824  15.943  80.037  0.00  0.00     0.312 C 
HETATM   16  O   UNK     0      27.070  16.726  79.466  0.00  0.00    -0.265 OA
HETATM   17  N   UNK     0      27.409  15.132  80.053  0.00  0.00    -0.104 N 
ENDBRANCH  12  15
ENDBRANCH   5  10
TORSDOF 2
ENDMDL
MODEL 6
REMARK VINA RESULT:      -5.7      2.407      3.382
REMARK  2 active torsions:
REMARK  status: ('A' for Active; 'I' for Inactive)
REMARK    1  A    between atoms: C_5  and  N_10 
REMARK    2  A    between atoms: C_13  and  C_15 
ROOT
HETATM    1  O   UNK     0      24.046  16.134  81.801  0.00  0.00     0.000 OA
HETATM    2  C   UNK     0      24.817  15.614  82.168  0.00  0.00     0.017 A 
HETATM    3  C   UNK     0      25.655  15.516  81.630  0.00  0.00     0.137 A 
HETATM    4  O   UNK     0      26.546  15.334  81.214  0.00  0.00    -0.357 OA
HETATM    5  C   UNK     0      26.564  15.775  80.317  0.00  0.00     0.428 A 
HETATM    6  C   UNK     0      25.684  16.229  80.178  0.00  0.00     0.102 A 
HETATM    7  C   UNK     0      25.122  16.069  80.990  0.00  0.00     0.219 A 
HETATM    8  O   UNK     0      24.324  16.579  80.667  0.00  0.00    -0.232 OA
HETATM    9  O   UNK     0      25.894  16.590  79.269  0.00  0.00     0.000 OA
ENDROOT
BRANCH   5  10
HETATM   10  N   UNK     0      27.491  15.488  80.078  0.00  0.00    -0.283 N 
HETATM   11  N   UNK     0      28.326  16.021  80.219  0.00  0.00    -0.217 NA
HETATM   12  C   UNK     0      29.098  15.480  79.885  0.00  0.00     0.250 A 
HETATM   13  N   UNK     0      28.741  14.614  79.537  0.00  0.00    -0.247 NA
HETATM   14  C   UNK     0      27.748  14.618  79.656  0.00  0.00     0.239 A 
BRANCH  12  15
HETATM   15  C   UNK     0      30.059  15.758  79.897  0.00  0.00     0.312 C 
HETATM   16  O   UNK     0      30.554  15.879  79.037  0.00  0.00    -0.265 OA
HETATM   17  N   UNK     0      30.523  15.915  80.768  0.00  0.00    -0.104 N 
ENDBRANCH  12  15
ENDBRANCH   5  10
TORSDOF 2
ENDMDL
MODEL 7
REMARK VINA RESULT:      -5.7     22.539     23.475
REMARK  2 active torsions:
REMARK  status: ('A' for Active; 'I' for Inactive)
REMARK    1  A    between atoms: C_5  and  N_10 
REMARK    2  A    between atoms: C_13  and  C_15 
ROOT
HETATM    1  O   UNK     0      16.818  14.015  60.837  0.00  0.00     0.000 OA
HETATM    2  C   UNK     0      17.699  14.070  60.367  0.00  0.00     0.017 A 
HETATM    3  C   UNK     0      17.805  14.664  59.570  0.00  0.00     0.137 A 
HETATM    4  O   UNK     0      18.059  15.207  58.770  0.00  0.00    -0.357 OA
HETATM    5  C   UNK     0      17.255  15.727  58.481  0.00  0.00     0.428 A 
HETATM    6  C   UNK     0      16.503  15.505  59.103  0.00  0.00     0.102 A 
HETATM    7  C   UNK     0      16.844  14.848  59.776  0.00  0.00     0.219 A 
HETATM    8  O   UNK     0      15.984  14.759  60.279  0.00  0.00    -0.232 OA
HETATM    9  O   UNK     0      15.827  16.097  58.665  0.00  0.00     0.000 OA
ENDROOT
BRANCH   5  10
HETATM   10  N   UNK     0      17.696  16.181  57.707  0.00  0.00    -0.283 N 
HETATM   11  N   UNK     0      18.340  16.944  57.763  0.00  0.00    -0.217 NA
HETATM   12  C   UNK     0      18.613  17.187  56.832  0.00  0.00     0.250 A 
HETATM   13  N   UNK     0      18.138  16.574  56.201  0.00  0.00    -0.247 NA
HETATM   14  C   UNK     0      17.572  15.952  56.741  0.00  0.00     0.239 A 
BRANCH  12  15
HETATM   15  C   UNK     0      19.250  17.915  56.578  0.00  0.00     0.312 C 
HETATM   16  O   UNK     0      19.069  18.478  55.771  0.00  0.00    -0.265 OA
HETATM   17  N   UNK     0      20.067  18.081  57.130  0.00  0.00    -0.104 N 
ENDBRANCH  12  15
ENDBRANCH   5  10
TORSDOF 2
ENDMDL
MODEL 8
REMARK VINA RESULT:      -5.5     23.400     24.435
REMARK  2 active torsions:
REMARK  status: ('A' for Active; 'I' for Inactive)
REMARK    1  A    between atoms: C_5  and  N_10 
REMARK    2  A    between atoms: C_13  and  C_15 
ROOT
HETATM    1  O   UNK     0      20.143  18.846  55.867  0.00  0.00     0.000 OA
HETATM    2  C   UNK     0      20.218  18.428  56.772  0.00  0.00     0.017 A 
HETATM    3  C   UNK     0      19.482  17.844  57.114  0.00  0.00     0.137 A 
HETATM    4  O   UNK     0      18.835  17.243  57.585  0.00  0.00    -0.357 OA
HETATM    5  C   UNK     0      18.046  17.108  56.986  0.00  0.00     0.428 A 
HETATM    6  C   UNK     0      18.205  17.624  56.144  0.00  0.00     0.102 A 
HETATM    7  C   UNK     0      19.093  18.079  56.224  0.00  0.00     0.219 A 
HETATM    8  O   UNK     0      19.066  18.520  55.326  0.00  0.00    -0.232 OA
HETATM    9  O   UNK     0      17.346  17.369  55.701  0.00  0.00     0.000 OA
ENDROOT
BRANCH   5  10
HETATM   10  N   UNK     0      17.543  16.510  57.609  0.00  0.00    -0.283 N 
HETATM   11  N   UNK     0      16.628  16.680  57.975  0.00  0.00    -0.217 NA
HETATM   12  C   UNK     0      16.386  15.912  58.569  0.00  0.00     0.250 A 
HETATM   13  N   UNK     0      17.150  15.268  58.569  0.00  0.00    -0.247 NA
HETATM   14  C   UNK     0      17.866  15.637  57.976  0.00  0.00     0.239 A 
BRANCH  12  15
HETATM   15  C   UNK     0      15.528  15.807  59.073  0.00  0.00     0.312 C 
HETATM   16  O   UNK     0      14.658  16.020  58.629  0.00  0.00    -0.265 OA
HETATM   17  N   UNK     0      15.542  15.489  60.021  0.00  0.00    -0.104 N 
ENDBRANCH  12  15
ENDBRANCH   5  10
TORSDOF 2
ENDMDL
MODEL 9
REMARK VINA RESULT:      -5.5     11.216     12.649
REMARK  2 active torsions:
REMARK  status: ('A' for Active; 'I' for Inactive)
REMARK    1  A    between atoms: C_5  and  N_10 
REMARK    2  A    between atoms: C_13  and  C_15 
ROOT
HETATM    1  O   UNK     0      32.942  22.195  77.407  0.00  0.00     0.000 OA
HETATM    2  C   UNK     0      33.446  23.008  77.116  0.00  0.00     0.017 A 
HETATM    3  C   UNK     0      33.062  23.610  76.415  0.00  0.00     0.137 A 
HETATM    4  O   UNK     0      32.808  24.297  75.734  0.00  0.00    -0.357 OA
HETATM    5  C   UNK     0      31.918  24.043  75.356  0.00  0.00     0.428 A 
HETATM    6  C   UNK     0      31.621  23.200  75.803  0.00  0.00     0.102 A 
HETATM    7  C   UNK     0      32.328  22.932  76.458  0.00  0.00     0.219 A 
HETATM    8  O   UNK     0      31.863  22.108  76.783  0.00  0.00    -0.232 OA
HETATM    9  O   UNK     0      30.755  23.119  75.309  0.00  0.00     0.000 OA
ENDROOT
BRANCH   5  10
HETATM   10  N   UNK     0      31.848  24.817  74.726  0.00  0.00    -0.283 N 
HETATM   11  N   UNK     0      31.435  25.704  74.930  0.00  0.00    -0.217 NA
HETATM   12  C   UNK     0      31.510  26.275  74.112  0.00  0.00     0.250 A 
HETATM   13  N   UNK     0      31.970  25.740  73.403  0.00  0.00    -0.247 NA
HETATM   14  C   UNK     0      32.179  24.839  73.782  0.00  0.00     0.239 A 
BRANCH  12  15
HETATM   15  C   UNK     0      31.183  27.216  74.019  0.00  0.00     0.312 C 
HETATM   16  O   UNK     0      30.313  27.399  73.563  0.00  0.00    -0.265 OA
HETATM   17  N   UNK     0      31.726  27.973  74.384  0.00  0.00    -0.104 N 
ENDBRANCH  12  15
ENDBRANCH   5  10
TORSDOF 2
ENDMDL
